data_start

_cell_length_a                           9.715454
_cell_length_b                           11.53580
_cell_length_c                           10.69708
_cell_angle_alpha                        90.0000
_cell_angle_beta                         90.0355
_cell_angle_gamma                        90.0000
_cell_volume                             1198.882
_cell_formula_units_Z                    8
_symmetry_space_group_name_H-M           'C 2/c'

loop_
_symmetry_equiv_pos_as_xyz
'x,y,z'
'-x,y,-z+1/2'
'-x,-y,-z'
'x,-y,z+1/2'
'x+1/2,y+1/2,z'
'-x+1/2,y+1/2,-z+1/2'
'-x+1/2,-y+1/2,-z'
'x+1/2,-y+1/2,z+1/2'

loop_
_atom_type_symbol
_atom_type_oxidation_number
Li1+   1
O2-   -2
P5+    5
Ta5+   5

loop_
_atom_site_label
_atom_site_type_symbol
_atom_site_symmetry_multiplicity
_atom_site_Wyckoff_symbol
_atom_site_fract_x
_atom_site_fract_y
_atom_site_fract_z
_atom_site_occupancy
Ta1      Ta5+       8 f    0.24561     0.0957     0.2555        1.0
Ta2      Ta5+       4 e        0.0     0.3463       0.25        1.0
Ta3      Ta5+       4 a        0.0        0.0        0.0        1.0
P1       P5+        8 f     0.4993     0.2096     0.0596        1.0
Li2      Li1+       8 f      0.236      0.361      0.417       0.72
Li3      Li1+       8 f        0.5      0.986        0.5       0.07
Li1      Li1+       8 f      0.264      0.347      0.125       0.21
Li4      Li1+       8 f      0.319      0.653      0.778       0.01  
O1       O2-        8 f     0.0569     0.3343     0.0677        1.0
O2       O2-        8 f     0.3817     0.1371     0.4061        1.0
O3       O2-        8 f     0.3582     0.5064     0.1271        1.0
O4       O2-        8 f     0.0475     0.1645     0.5497        1.0
O5       O2-        8 f     0.1443     0.2342     0.2879        1.0
O6       O2-        8 f     0.1379     0.0567     0.1161        1.0
O7       O2-        8 f     0.3787     0.2023     0.1537        1.0
O8       O2-        8 f     0.1368     0.4655     0.2824        1.0
